*Heading
** Job name: Job-3 Model name: Model-1
** Generated by: Abaqus/CAE 6.12-3
*Preprint, echo=NO, model=NO, history=NO, contact=NO
**
** PARTS
**
*Part, name=Part-1
*End Part
**  
**
** ASSEMBLY
**
*Assembly, name=Assembly
**  
*Instance, name=Part-1-1, part=Part-1
*Node
      1,           6.,           4.
      2,           6.,           0.
      3,          12.,           0.
      4,          12.,           6.
      5,           8.,           6.
      6,           4.,           6.
      7,           0.,           6.
      8,           0.,           0.
      9,           6.,          12.
     10,           6.,           8.
     11,          12.,          12.
     12,           0.,          12.
     13,   7.90211296,   5.38196611
     14,   7.61803389,   4.82442951
     15,   7.17557049,   4.38196611
     16,   6.61803389,   4.09788704
     17,           6.,    3.5999999
     18,           6.,   3.20000005
     19,           6.,   2.79999995
     20,           6.,    2.4000001
** ... 434 like lines cut
*Element, type=CPS4R
  1,  13,  14, 134, 131
  2,  14,  15, 133, 134
  3,  15,  16, 132, 133
  4,  16,   1,  17, 132
  5,  17,  18, 148, 132
  6,  18,  19, 149, 148
  7,  19,  20, 150, 149
  8,  20,  21, 151, 150
  9,  21,  22, 152, 151
 10,  22,  23, 153, 152
 11,  23,  24, 154, 153
 12,  24,  25, 155, 154
 13,  25,   2,  26, 155
 14, 132, 148, 156, 133
 15, 148, 149, 157, 156
 16, 149, 150, 158, 157
 17, 150, 151, 159, 158
 18, 151, 152, 160, 159
 19, 152, 153, 161, 160
 20, 153, 154, 162, 161
** ... 384 like lines cut
*Nset, nset=Set-1, generate
   1,  454,    1
*Elset, elset=Set-1, generate
   1,  404,    1
*Nset, nset=bottom
  2,  3,  8, 26, 27, 28, 29, 30, 31, 32, 33, 34, 50, 51, 52, 53
 54, 55, 56, 57, 58
*Elset, elset=bottom
  13,  22,  31,  40,  41,  42,  43,  44,  45,  46, 102, 103, 104, 105, 157, 166
 175, 184, 193, 202
*Nset, nset=top
   9,  11,  12,  78,  79,  80,  81,  82,  83,  84,  85,  86, 113, 114, 115, 116
 117, 118, 119, 120, 121
*Elset, elset=top
 203, 204, 205, 206, 258, 267, 276, 285, 294, 303, 316, 325, 334, 343, 344, 345
 346, 347, 348, 349
** Section: Section-1
*Solid Section, elset=Set-1, material=Material-1
,
*End Instance
**  
*End Assembly
** 
** MATERIALS
** 
*Material, name=Material-1
*Elastic
210., 0.3
** 
** BOUNDARY CONDITIONS
** 
** Name: BC-1 Type: Symmetry/Antisymmetry/Encastre
*Boundary
Part-1-1.bottom, ENCASTRE
** ----------------------------------------------------------------
** 
** STEP: Step-1
** 
*Step, name=Step-1
*Static
1., 1., 1e-05, 1.
** 
** BOUNDARY CONDITIONS
** 
** Name: BC-2 Type: Displacement/Rotation
*Boundary
Part-1-1.top, 1, 1
Part-1-1.top, 2, 2, 3.
Part-1-1.top, 6, 6
** 
** OUTPUT REQUESTS
** 
*Restart, write, frequency=0
** 
** FIELD OUTPUT: F-Output-1
** 
*Output, field, variable=PRESELECT
** 
** HISTORY OUTPUT: H-Output-1
** 
*Output, history, variable=PRESELECT
*End Step
